Hello World!
I got swag!!
New line... lemme check
Another one